Version 4
SHEET 1 880 680
WIRE 208 -32 80 -32
WIRE 336 -32 208 -32
WIRE 80 0 80 -32
WIRE 336 0 336 -32
WIRE 208 96 208 -32
WIRE 176 128 16 128
WIRE 464 128 240 128
WIRE -128 192 -240 192
WIRE 80 192 80 80
WIRE 80 192 -48 192
WIRE 192 192 192 160
WIRE 192 192 80 192
WIRE 224 192 224 160
WIRE 336 192 336 80
WIRE 336 192 224 192
WIRE -240 208 -240 192
WIRE 80 224 80 192
WIRE 336 224 336 192
WIRE -240 336 -240 288
WIRE 80 336 80 304
WIRE 336 336 336 304
WIRE 16 432 16 128
WIRE 112 432 16 432
WIRE 224 432 192 432
WIRE 256 432 224 432
WIRE 464 432 464 128
WIRE 464 432 336 432
WIRE 224 464 224 432
FLAG 80 336 0
FLAG 336 336 0
FLAG 224 464 0
FLAG -240 336 0
FLAG 208 -32 Vo
FLAG 80 192 Vl
FLAG -240 192 Vi
SYMBOL LM324 208 128 M270
SYMATTR InstName U1
SYMBOL res 64 -16 R0
SYMATTR InstName R1
SYMATTR Value 100
SYMBOL res 320 -16 R0
SYMATTR InstName R2
SYMATTR Value 10000
SYMBOL res 64 208 R0
SYMATTR InstName Rl
SYMATTR Value 10000
SYMBOL res 320 208 R0
SYMATTR InstName R4
SYMATTR Value 100000
SYMBOL res -32 176 R90
WINDOW 0 0 56 VBottom 2
WINDOW 3 32 56 VTop 2
SYMATTR InstName R3
SYMATTR Value 1000
SYMBOL voltage 352 432 R90
WINDOW 0 -32 56 VBottom 2
WINDOW 3 32 56 VTop 2
WINDOW 123 0 0 Left 0
WINDOW 39 0 0 Left 0
SYMATTR InstName V1
SYMATTR Value 10
SYMBOL voltage 208 432 R90
WINDOW 0 -32 56 VBottom 2
WINDOW 3 32 56 VTop 2
WINDOW 123 0 0 Left 0
WINDOW 39 0 0 Left 0
SYMATTR InstName V2
SYMATTR Value 10
SYMBOL voltage -240 192 R0
WINDOW 123 0 0 Left 0
WINDOW 39 0 0 Left 0
SYMATTR InstName V3
SYMATTR Value 2
TEXT -272 504 Left 2 !.tran 0 0.1 0.001
