Version 4
SHEET 1 972 680
WIRE 96 -288 -368 -288
WIRE 560 -288 96 -288
WIRE -368 -192 -368 -288
WIRE 128 -192 16 -192
WIRE 256 -192 208 -192
WIRE 352 -192 256 -192
WIRE 480 -192 432 -192
WIRE 256 -128 256 -192
WIRE -368 -48 -368 -112
WIRE -368 -48 -448 -48
WIRE -448 -32 -448 -48
WIRE -112 -32 -160 -32
WIRE 16 -32 16 -192
WIRE 16 -32 -32 -32
WIRE 128 -32 16 -32
WIRE 256 -32 256 -64
WIRE 256 -32 192 -32
WIRE 480 -16 480 -192
WIRE 608 -16 480 -16
WIRE 736 -16 688 -16
WIRE -160 0 -160 -32
WIRE -368 16 -368 -48
WIRE 96 80 96 -288
WIRE 560 80 560 -288
WIRE 16 96 16 -32
WIRE 64 96 16 96
WIRE 480 96 480 -16
WIRE 528 96 480 96
WIRE 256 112 256 -32
WIRE 256 112 128 112
WIRE 736 112 736 -16
WIRE 736 112 592 112
WIRE 848 112 736 112
WIRE 16 128 -96 128
WIRE 64 128 16 128
WIRE 528 128 480 128
WIRE 848 128 848 112
WIRE -96 160 -96 128
WIRE 16 192 16 128
WIRE 480 192 480 128
WIRE 480 192 16 192
WIRE 848 224 848 208
WIRE -96 272 -96 240
WIRE -368 368 -368 96
WIRE 96 368 96 144
WIRE 96 368 -368 368
WIRE 560 368 560 144
WIRE 560 368 96 368
FLAG -160 0 0
FLAG 848 224 0
FLAG -448 -32 0
FLAG -96 272 0
FLAG 848 112 Vo2
FLAG 256 112 Vo1
FLAG -96 128 Vi
SYMBOL LM324 96 112 R0
SYMATTR InstName U1
SYMBOL LM324 560 112 R0
SYMATTR InstName U2
SYMBOL diode 192 -48 R90
WINDOW 0 0 32 VBottom 2
WINDOW 3 32 32 VTop 2
SYMATTR InstName D2
SYMBOL diode 240 -128 R0
SYMATTR InstName D1
SYMBOL res 224 -208 R90
WINDOW 0 0 56 VBottom 2
WINDOW 3 32 56 VTop 2
SYMATTR InstName R1
SYMATTR Value 10000
SYMATTR SpiceLine tol=1
SYMBOL res 448 -208 R90
WINDOW 0 0 56 VBottom 2
WINDOW 3 32 56 VTop 2
SYMATTR InstName R2
SYMATTR Value 5000
SYMATTR SpiceLine tol=1
SYMBOL res 704 -32 R90
WINDOW 0 0 56 VBottom 2
WINDOW 3 32 56 VTop 2
SYMATTR InstName R4
SYMATTR Value 10000
SYMATTR SpiceLine tol=1
SYMBOL res -16 -48 R90
WINDOW 0 0 56 VBottom 2
WINDOW 3 32 56 VTop 2
SYMATTR InstName R3
SYMATTR Value 10000
SYMATTR SpiceLine tol=1
SYMBOL res 832 112 R0
SYMATTR InstName R5
SYMATTR Value 10000
SYMBOL voltage -96 144 R0
WINDOW 123 0 0 Left 0
WINDOW 39 0 0 Left 0
SYMATTR InstName Vi
SYMATTR Value SINE(0 1 1000 0)
SYMBOL voltage -368 -208 R0
WINDOW 123 0 0 Left 0
WINDOW 39 0 0 Left 0
SYMATTR InstName V2
SYMATTR Value 10
SYMBOL voltage -368 0 R0
WINDOW 123 0 0 Left 0
WINDOW 39 0 0 Left 0
SYMATTR InstName V3
SYMATTR Value 10
TEXT -464 384 Left 2 !.tran 0 0.1 0.001
