Version 4
SHEET 1 880 680
WIRE 240 -96 -288 -96
WIRE 16 -48 -144 -48
WIRE 16 0 16 -48
WIRE -144 16 -144 -48
WIRE -144 128 -144 96
WIRE 240 128 240 -96
WIRE -288 144 -288 -96
WIRE 16 144 16 80
WIRE 208 144 16 144
WIRE 464 160 272 160
WIRE 592 160 464 160
WIRE 16 176 16 144
WIRE 208 176 176 176
WIRE 592 176 592 160
WIRE 16 272 16 256
WIRE 176 288 176 176
WIRE 176 288 112 288
WIRE 336 288 176 288
WIRE 464 288 464 160
WIRE 464 288 416 288
WIRE 592 288 592 256
WIRE 112 304 112 288
WIRE 112 416 112 384
WIRE 112 512 112 496
WIRE -288 560 -288 224
WIRE 240 560 240 192
WIRE 240 560 -288 560
WIRE -288 592 -288 560
FLAG 16 272 0
FLAG -144 128 0
FLAG 112 512 0
FLAG -288 592 0
FLAG 464 160 Vo
FLAG 16 -48 Vi
FLAG 592 288 0
SYMBOL LM324 240 160 R0
SYMATTR InstName U1
SYMBOL res 0 -16 R0
SYMATTR InstName R1
SYMATTR Value 10000
SYMBOL res 0 160 R0
SYMATTR InstName R2
SYMATTR Value 10000
SYMBOL res 96 288 R0
SYMATTR InstName R3
SYMATTR Value 2000
SYMBOL res 432 272 R90
WINDOW 0 0 56 VBottom 2
WINDOW 3 32 56 VTop 2
SYMATTR InstName R4
SYMATTR Value 10000
SYMBOL voltage -144 0 R0
WINDOW 123 0 0 Left 0
WINDOW 39 0 0 Left 0
SYMATTR InstName Vi
SYMATTR Value SINE(0 6.2 1000 0)
SYMBOL voltage 112 400 R0
WINDOW 123 0 0 Left 0
WINDOW 39 0 0 Left 0
WINDOW 3 24 44 Left 2
SYMATTR Value 2
SYMATTR InstName V2
SYMBOL voltage -288 128 R0
WINDOW 123 0 0 Left 0
WINDOW 39 0 0 Left 0
SYMATTR InstName V1
SYMATTR Value 10
SYMBOL res 576 160 R0
SYMATTR InstName R5
SYMATTR Value 1000000
TEXT -320 616 Left 2 !.tran 0 0.1 0.001
