Version 4
SHEET 1 1124 680
WIRE -144 -320 -464 -320
WIRE 496 -320 -144 -320
WIRE 80 -208 -96 -208
WIRE 304 -208 160 -208
WIRE -464 -112 -464 -320
WIRE -96 -96 -96 -208
WIRE -48 -96 -96 -96
WIRE 80 -96 32 -96
WIRE 304 -96 304 -208
WIRE 352 -96 304 -96
WIRE 480 -96 432 -96
WIRE -144 -32 -144 -320
WIRE -16 -32 -144 -32
WIRE 496 -16 496 -320
WIRE 496 -16 368 -16
WIRE -464 0 -464 -32
WIRE -464 0 -528 0
WIRE -528 16 -528 0
WIRE -16 16 -16 -32
WIRE -464 32 -464 0
WIRE -240 32 -272 32
WIRE -96 32 -96 -96
WIRE -96 32 -160 32
WIRE -48 32 -96 32
WIRE 368 32 368 -16
WIRE 80 48 80 -96
WIRE 80 48 16 48
WIRE 144 48 80 48
WIRE 304 48 304 -96
WIRE 304 48 224 48
WIRE 336 48 304 48
WIRE -272 64 -272 32
WIRE -48 64 -112 64
WIRE 480 64 480 -96
WIRE 480 64 400 64
WIRE 576 64 480 64
WIRE 336 80 288 80
WIRE 576 80 576 64
WIRE -112 96 -112 64
WIRE 288 112 288 80
WIRE 576 176 576 160
WIRE -112 224 -112 176
WIRE 288 224 288 192
WIRE -464 256 -464 112
WIRE -16 256 -16 80
WIRE -16 256 -464 256
WIRE 368 256 368 96
WIRE 368 256 -16 256
FLAG -272 64 0
FLAG 576 176 0
FLAG -528 16 0
FLAG -112 224 0
FLAG 288 224 0
FLAG 80 48 Vo1
FLAG 480 64 Vo2
FLAG -112 64 Vi1
FLAG 288 80 Vi2
DATAFLAG -464 0 ""
SYMBOL LM324 -16 48 R0
SYMATTR InstName U1
SYMBOL LM324 368 64 R0
SYMATTR InstName U2
SYMBOL res 176 -224 R90
WINDOW 0 0 56 VBottom 2
WINDOW 3 32 56 VTop 2
SYMATTR InstName R1
SYMATTR Value 1000
SYMBOL res 48 -112 R90
WINDOW 0 0 56 VBottom 2
WINDOW 3 32 56 VTop 2
SYMATTR InstName R2
SYMATTR Value 1000
SYMBOL res 448 -112 R90
WINDOW 0 0 56 VBottom 2
WINDOW 3 32 56 VTop 2
SYMATTR InstName R3
SYMATTR Value 1000
SYMBOL res -144 16 R90
WINDOW 0 0 56 VBottom 2
WINDOW 3 32 56 VTop 2
SYMATTR InstName R4
SYMATTR Value 1000
SYMBOL res 240 32 R90
WINDOW 0 0 56 VBottom 2
WINDOW 3 32 56 VTop 2
SYMATTR InstName R5
SYMATTR Value 1000
SYMBOL res 560 64 R0
SYMATTR InstName R6
SYMATTR Value 100000
SYMBOL voltage -464 -128 R0
WINDOW 123 0 0 Left 0
WINDOW 39 0 0 Left 0
SYMATTR InstName Vcc
SYMATTR Value 10
SYMBOL voltage -464 16 R0
WINDOW 123 0 0 Left 0
WINDOW 39 0 0 Left 0
SYMATTR InstName Vss
SYMATTR Value 10
SYMBOL voltage -112 80 R0
WINDOW 123 0 0 Left 0
WINDOW 39 0 0 Left 0
SYMATTR InstName V1
SYMATTR Value 1
SYMBOL voltage 288 96 R0
WINDOW 123 0 0 Left 0
WINDOW 39 0 0 Left 0
SYMATTR InstName V2
SYMATTR Value 1
TEXT -544 272 Left 2 !.tran 0 0.1s 0.001
