Version 4
SHEET 1 1044 680
WIRE -144 -96 -912 -96
WIRE 656 -96 -144 -96
WIRE -912 -48 -912 -96
WIRE 784 16 576 16
WIRE -48 32 -256 32
WIRE 656 80 656 -96
WIRE -144 96 -144 -96
WIRE 576 96 576 16
WIRE 624 96 576 96
WIRE -912 112 -912 32
WIRE -912 112 -976 112
WIRE -256 112 -256 32
WIRE -176 112 -256 112
WIRE 784 112 784 16
WIRE 784 112 688 112
WIRE 832 112 784 112
WIRE 960 112 832 112
WIRE -48 128 -48 32
WIRE -48 128 -112 128
WIRE 0 128 -48 128
WIRE 256 128 0 128
WIRE 368 128 320 128
WIRE 432 128 368 128
WIRE 560 128 496 128
WIRE 624 128 560 128
WIRE 960 128 960 112
WIRE -688 144 -816 144
WIRE -592 144 -608 144
WIRE -560 144 -592 144
WIRE -432 144 -480 144
WIRE -384 144 -432 144
WIRE -256 144 -304 144
WIRE -176 144 -256 144
WIRE 560 144 560 128
WIRE -976 160 -976 112
WIRE -256 160 -256 144
WIRE -592 176 -592 144
WIRE -912 224 -912 112
WIRE 960 224 960 208
WIRE -256 240 -256 224
WIRE 560 240 560 224
WIRE -592 272 -592 256
WIRE -432 272 -432 144
WIRE -112 272 -432 272
WIRE 0 272 0 128
WIRE 0 272 -48 272
WIRE 368 272 368 128
WIRE 704 272 368 272
WIRE 832 272 832 112
WIRE 832 272 784 272
WIRE -816 336 -816 144
WIRE -816 448 -816 416
WIRE -912 496 -912 304
WIRE -144 496 -144 160
WIRE -144 496 -912 496
WIRE 656 496 656 144
WIRE 656 496 -144 496
FLAG -256 240 0
FLAG 560 240 0
FLAG 960 224 0
FLAG 960 112 Nl
FLAG -816 144 Ni
FLAG -976 160 0
FLAG -592 272 0
FLAG -816 448 0
SYMBOL LM324 -144 128 R0
SYMATTR InstName U1
SYMBOL LM324 656 112 R0
SYMATTR InstName U2
SYMBOL cap -48 256 R90
WINDOW 0 0 32 VBottom 2
WINDOW 3 32 32 VTop 2
SYMATTR InstName C1pb
SYMATTR Value 62.8n
SYMBOL cap -240 224 R180
WINDOW 0 24 56 Left 2
WINDOW 3 24 8 Left 2
SYMATTR InstName C2pb
SYMATTR Value 2.4n
SYMBOL res -288 128 R90
WINDOW 0 0 56 VBottom 2
WINDOW 3 32 56 VTop 2
SYMATTR InstName R2_pb
SYMATTR Value 10000
SYMBOL res -464 128 R90
WINDOW 0 0 56 VBottom 2
WINDOW 3 32 56 VTop 2
SYMATTR InstName R1_pb
SYMATTR Value 10000
SYMBOL voltage -816 320 R0
WINDOW 123 30 123 Left 2
WINDOW 39 0 0 Left 0
SYMATTR InstName V1
SYMATTR Value SINE(0 2 1000)
SYMATTR Value2 AC 1 0
SYMBOL cap 320 112 R90
WINDOW 0 0 32 VBottom 2
WINDOW 3 32 32 VTop 2
SYMATTR InstName C1pa
SYMATTR Value 100n
SYMBOL cap 496 112 R90
WINDOW 0 0 32 VBottom 2
WINDOW 3 32 32 VTop 2
SYMATTR InstName C2pa
SYMATTR Value 100n
SYMBOL res 544 128 R0
SYMATTR InstName R2_pa
SYMATTR Value 10550
SYMBOL res 800 256 R90
WINDOW 0 0 56 VBottom 2
WINDOW 3 32 56 VTop 2
SYMATTR InstName R1_pa
SYMATTR Value 403
SYMBOL res 944 112 R0
SYMATTR InstName R3
SYMATTR Value 1000
SYMBOL voltage -912 -64 R0
SYMATTR InstName V2
SYMATTR Value 10
SYMBOL voltage -912 208 R0
SYMATTR InstName V3
SYMATTR Value 10
SYMBOL res -608 160 R0
SYMATTR InstName R1
SYMATTR Value 500
SYMBOL res -592 128 R90
WINDOW 0 0 56 VBottom 2
WINDOW 3 32 56 VTop 2
SYMATTR InstName R2
SYMATTR Value 1500
TEXT -904 536 Left 2 !.ac dec 10 1 1000000
