Version 4
SHEET 1 880 680
WIRE 32 -208 -416 -208
WIRE 304 -208 32 -208
WIRE 128 -112 -32 -112
WIRE 496 -112 208 -112
WIRE -416 -96 -416 -208
WIRE 256 -64 208 -64
WIRE 208 -48 208 -64
WIRE 256 -48 256 -64
WIRE -416 0 -416 -16
WIRE -416 0 -480 0
WIRE -480 16 -480 0
WIRE -416 16 -416 0
WIRE 448 32 416 32
WIRE 208 48 208 32
WIRE 336 48 336 32
WIRE 336 48 208 48
WIRE 304 80 304 -208
WIRE 32 96 32 -208
WIRE 208 96 208 48
WIRE 272 96 208 96
WIRE -192 112 -224 112
WIRE -32 112 -32 -112
WIRE -32 112 -112 112
WIRE 0 112 -32 112
WIRE 448 112 448 32
WIRE 448 112 336 112
WIRE 496 112 496 -112
WIRE 496 112 448 112
WIRE -224 128 -224 112
WIRE 272 128 64 128
WIRE 0 144 -80 144
WIRE 496 144 496 112
WIRE -80 176 -80 144
WIRE 496 256 496 224
WIRE -80 272 -80 256
WIRE -416 320 -416 96
WIRE 32 320 32 160
WIRE 32 320 -416 320
WIRE 304 320 304 144
WIRE 304 320 32 320
FLAG -224 128 0
FLAG 256 -48 0
FLAG -80 272 0
FLAG -480 16 0
FLAG 496 112 nl
FLAG -80 144 ni
FLAG 496 256 0
SYMBOL LM324 32 128 R0
SYMATTR InstName U1
SYMBOL LM324 304 112 R0
SYMATTR InstName U2
SYMBOL res -96 96 R90
WINDOW 0 0 56 VBottom 2
WINDOW 3 32 56 VTop 2
SYMATTR InstName Ri
SYMATTR Value 1000
SYMBOL res 224 -128 R90
WINDOW 0 0 56 VBottom 2
WINDOW 3 32 56 VTop 2
SYMATTR InstName Rf
SYMATTR Value 9000
SYMBOL res 224 48 R180
WINDOW 0 36 76 Left 2
WINDOW 3 36 40 Left 2
SYMATTR InstName R1
SYMATTR Value 1000
SYMBOL res 320 48 R270
WINDOW 0 32 56 VTop 2
WINDOW 3 0 56 VBottom 2
SYMATTR InstName R2
SYMATTR Value 22500
SYMBOL voltage -80 160 R0
WINDOW 123 24 124 Left 2
WINDOW 39 24 124 Left 2
SYMATTR InstName V1
SYMATTR Value SINE(0 0.5 10000 0 0 0 0)
SYMATTR SpiceLine Rser=50
SYMBOL voltage -416 -112 R0
WINDOW 123 0 0 Left 0
WINDOW 39 0 0 Left 0
SYMATTR InstName V2
SYMATTR Value 15
SYMBOL voltage -416 0 R0
WINDOW 123 0 0 Left 0
WINDOW 39 0 0 Left 0
SYMATTR InstName V3
SYMATTR Value 15
SYMBOL res 480 128 R0
SYMATTR InstName R3
SYMATTR Value 1000
TEXT -408 352 Left 2 !.tran 0 0.1 0
