Version 4
SHEET 1 896 680
WIRE -208 -32 -384 -32
WIRE 112 -32 -208 -32
WIRE 320 -32 112 -32
WIRE -384 32 -384 -32
WIRE -208 32 -208 -32
WIRE 320 96 320 -32
WIRE 112 112 112 -32
WIRE 80 128 16 128
WIRE -384 144 -384 112
WIRE 256 144 144 144
WIRE -208 160 -208 112
WIRE 80 160 -208 160
WIRE 112 192 112 176
WIRE -208 208 -208 160
WIRE 16 256 16 128
WIRE 160 256 16 256
WIRE 320 256 320 192
WIRE 320 256 240 256
WIRE 432 256 320 256
WIRE 512 256 432 256
WIRE 688 256 592 256
WIRE 16 272 16 256
WIRE 432 272 432 256
WIRE 688 272 688 256
WIRE -208 288 -208 272
WIRE 16 384 16 352
WIRE 304 384 16 384
WIRE 432 384 432 352
WIRE 432 384 304 384
WIRE 688 384 688 352
WIRE 688 384 432 384
WIRE 304 400 304 384
FLAG 112 192 0
FLAG -208 288 0
FLAG -384 144 0
FLAG 304 400 0
SYMBOL LM324 112 144 R0
SYMATTR InstName U1
SYMBOL res 0 256 R0
SYMATTR InstName R1
SYMATTR Value 10000
SYMBOL res 256 240 R90
WINDOW 0 0 56 VBottom 2
WINDOW 3 32 56 VTop 2
SYMATTR InstName R2
SYMATTR Value 5000
SYMBOL res 448 368 R180
WINDOW 0 36 76 Left 2
WINDOW 3 36 40 Left 2
SYMATTR InstName R3
SYMATTR Value 5000
SYMBOL res 496 272 R270
WINDOW 0 32 56 VTop 2
WINDOW 3 0 56 VBottom 2
SYMATTR InstName R4
SYMATTR Value 10000
SYMBOL voltage 688 256 R0
WINDOW 123 0 0 Left 0
WINDOW 39 0 0 Left 0
SYMATTR InstName V1
SYMATTR Value SINE(0 5 5000)
SYMBOL zener -192 272 R180
WINDOW 0 24 64 Left 2
WINDOW 3 24 0 Left 2
SYMATTR InstName D1
SYMATTR Value 2.5
SYMBOL res -224 16 R0
SYMATTR InstName R5
SYMATTR Value 10000
SYMBOL Contrib\\Toshiba\\bjt\\TDTC143E 256 96 R0
SYMATTR InstName U2
SYMBOL voltage -384 16 R0
WINDOW 123 0 0 Left 0
WINDOW 39 0 0 Left 0
SYMATTR InstName V2
SYMATTR Value 12
TEXT -368 368 Left 2 !.tran 0 0.2 0
