Version 4
SHEET 1 880 680
WIRE 384 -176 32 -176
WIRE 384 -112 384 -176
WIRE 48 -32 -48 -32
WIRE 176 -32 128 -32
WIRE 32 48 32 -176
WIRE -400 64 -592 64
WIRE -192 64 -320 64
WIRE -48 64 -48 -32
WIRE -48 64 -112 64
WIRE 0 64 -48 64
WIRE 384 64 384 -32
WIRE 496 64 384 64
WIRE 176 80 176 -32
WIRE 176 80 64 80
WIRE 496 80 496 64
WIRE 0 96 -16 96
WIRE -592 128 -592 64
WIRE -16 128 -16 96
WIRE -400 160 -464 160
WIRE -192 160 -320 160
WIRE -48 160 -48 64
WIRE -48 160 -112 160
WIRE 384 160 384 64
WIRE -464 224 -464 160
WIRE -592 240 -592 208
WIRE 32 320 32 112
WIRE 384 320 384 240
WIRE 384 320 32 320
WIRE -464 336 -464 304
FLAG -16 128 0
FLAG -464 336 0
FLAG -592 240 0
FLAG 496 80 0
SYMBOL res 144 -48 R90
WINDOW 0 -4 56 VBottom 2
WINDOW 3 32 56 VTop 2
SYMATTR InstName Rf
SYMATTR Value 1000000
SYMBOL res -96 48 R90
WINDOW 0 0 56 VBottom 2
WINDOW 3 32 56 VTop 2
SYMATTR InstName R
SYMATTR Value 33000
SYMBOL res -96 144 R90
WINDOW 0 0 56 VBottom 2
WINDOW 3 32 56 VTop 2
SYMATTR InstName R
SYMATTR Value 33000
SYMBOL LM324 32 80 R0
SYMATTR InstName U1
SYMBOL res -304 48 R90
WINDOW 0 0 56 VBottom 2
WINDOW 3 32 56 VTop 2
SYMATTR InstName Ri1
SYMATTR Value 50
SYMBOL res -304 144 R90
WINDOW 0 0 56 VBottom 2
WINDOW 3 32 56 VTop 2
SYMATTR InstName Ri2
SYMATTR Value 50
SYMBOL voltage -592 112 R0
WINDOW 3 -232 54 Left 2
WINDOW 123 0 0 Left 0
WINDOW 39 0 0 Left 0
SYMATTR InstName V1
SYMATTR Value SINE(0 2 1000)
SYMBOL voltage -464 208 R0
WINDOW 3 52 59 Left 2
WINDOW 123 0 0 Left 0
WINDOW 39 0 0 Left 0
SYMATTR InstName V2
SYMATTR Value SINE(0 2 1000)
SYMBOL voltage 384 -128 R0
WINDOW 123 0 0 Left 0
WINDOW 39 0 0 Left 0
SYMATTR InstName Vcc
SYMATTR Value 10
SYMBOL voltage 384 144 R0
WINDOW 123 0 0 Left 0
WINDOW 39 0 0 Left 0
SYMATTR InstName Vss
SYMATTR Value 10
