Version 4
SHEET 1 880 680
WIRE -352 -64 -720 -64
WIRE 144 -64 -352 -64
WIRE 512 -64 144 -64
WIRE 64 -48 16 -48
WIRE 64 -32 64 -48
WIRE 16 -16 16 -48
WIRE -352 16 -352 -64
WIRE -352 16 -416 16
WIRE -288 16 -352 16
WIRE -720 32 -720 -64
WIRE -416 48 -416 16
WIRE -288 48 -288 16
WIRE 64 64 64 48
WIRE 176 64 64 64
WIRE 272 64 256 64
WIRE 144 128 144 -64
WIRE 64 144 64 64
WIRE 112 144 64 144
WIRE 272 160 272 64
WIRE 272 160 176 160
WIRE 320 160 272 160
WIRE 416 160 400 160
WIRE 528 160 416 160
WIRE 656 160 608 160
WIRE -720 176 -720 112
WIRE -720 176 -800 176
WIRE -416 176 -416 128
WIRE -416 176 -480 176
WIRE -288 176 -288 128
WIRE 112 176 -288 176
WIRE -800 208 -800 176
WIRE -416 224 -416 176
WIRE -288 224 -288 176
WIRE 512 224 512 -64
WIRE -720 240 -720 176
WIRE 416 240 416 160
WIRE 480 240 416 240
WIRE 656 256 656 160
WIRE 656 256 544 256
WIRE 736 256 656 256
WIRE 480 272 416 272
WIRE 736 288 736 256
WIRE -416 336 -416 304
WIRE -352 336 -416 336
WIRE -288 336 -288 304
WIRE -288 336 -352 336
WIRE -480 384 -480 176
WIRE 416 384 416 272
WIRE 416 384 -480 384
WIRE 736 400 736 368
WIRE -720 416 -720 320
WIRE -352 416 -352 336
WIRE -352 416 -720 416
WIRE 144 416 144 192
WIRE 144 416 -352 416
WIRE 512 416 512 288
WIRE 512 416 144 416
FLAG 16 -16 0
FLAG 736 400 0
FLAG -800 208 0
FLAG 736 256 Nl
FLAG -288 176 Ni+
FLAG -416 176 Ni-
SYMBOL LM324 144 160 R0
SYMATTR InstName U1
SYMBOL LM324 512 256 R0
SYMATTR InstName U2
SYMBOL res 304 176 R270
WINDOW 0 32 56 VTop 2
WINDOW 3 0 56 VBottom 2
SYMATTR InstName R2
SYMATTR Value 2200
SYMBOL res 512 176 R270
WINDOW 0 32 56 VTop 2
WINDOW 3 0 56 VBottom 2
SYMATTR InstName aR2
SYMATTR Value 47000
SYMBOL res -432 32 R0
SYMATTR InstName Rp1
SYMATTR Value 3300
SYMBOL res -432 208 R0
SYMATTR InstName Rp2
SYMATTR Value 3300
SYMBOL res -304 208 R0
SYMATTR InstName Rp3
SYMATTR Value 3300
SYMBOL res 48 -48 R0
SYMATTR InstName aR1
SYMATTR Value 47000
SYMBOL res 272 48 R90
WINDOW 0 0 56 VBottom 2
WINDOW 3 32 56 VTop 2
SYMATTR InstName R1
SYMATTR Value 2200
SYMBOL res 720 272 R0
SYMATTR InstName Rl
SYMATTR Value 1000
SYMBOL voltage -720 16 R0
WINDOW 123 0 0 Left 0
WINDOW 39 0 0 Left 0
SYMATTR InstName V1
SYMATTR Value 5
SYMBOL voltage -720 224 R0
WINDOW 123 0 0 Left 0
WINDOW 39 0 0 Left 0
SYMATTR InstName V2
SYMATTR Value 5
SYMBOL res -304 32 R0
SYMATTR InstName Rp4
SYMATTR Value 3300
TEXT -720 456 Left 2 !.tran 0 0.2 0 0.00001
